Version 4
SHEET 1 1448 680
WIRE 192 -192 -272 -192
WIRE 512 -192 192 -192
WIRE 192 -160 192 -192
WIRE 512 -160 512 -192
WIRE -128 -112 -160 -112
WIRE -32 -112 -48 -112
WIRE -16 -112 -32 -112
WIRE 112 -112 64 -112
WIRE 144 -112 112 -112
WIRE 592 -112 560 -112
WIRE 624 -112 592 -112
WIRE 736 -112 704 -112
WIRE 768 -112 736 -112
WIRE 896 -112 848 -112
WIRE -160 -96 -160 -112
WIRE 736 -96 736 -112
WIRE 896 -96 896 -112
WIRE 320 -32 240 -32
WIRE 480 -32 384 -32
WIRE -32 -16 -32 -112
WIRE 512 0 512 -64
WIRE 736 0 736 -32
WIRE 736 0 512 0
WIRE 896 0 896 -16
WIRE 896 0 736 0
WIRE -272 16 -272 -192
WIRE -160 64 -160 -16
WIRE -32 64 -32 48
WIRE -32 64 -160 64
WIRE 176 64 -32 64
WIRE 192 64 192 -64
WIRE 192 64 176 64
WIRE 240 64 240 -32
WIRE 240 64 192 64
WIRE 256 64 240 64
WIRE 384 64 336 64
WIRE 480 64 480 -32
WIRE 480 64 464 64
WIRE 512 64 512 0
WIRE 512 64 480 64
WIRE 528 64 512 64
WIRE 192 112 192 64
WIRE 512 112 512 64
WIRE -128 160 -160 160
WIRE 0 160 -48 160
WIRE 112 160 80 160
WIRE 144 160 112 160
WIRE 592 160 560 160
WIRE 624 160 592 160
WIRE 736 160 704 160
WIRE 768 160 736 160
WIRE 896 160 848 160
WIRE -160 176 -160 160
WIRE 896 176 896 160
WIRE -48 192 -48 160
WIRE 736 192 736 160
WIRE -272 272 -272 96
WIRE -160 272 -160 256
WIRE -160 272 -272 272
WIRE -48 272 -48 256
WIRE -48 272 -160 272
WIRE 192 272 192 208
WIRE 192 272 -48 272
WIRE 512 272 512 208
WIRE 512 272 192 272
WIRE 736 272 736 256
WIRE 736 272 512 272
WIRE 896 272 896 256
WIRE 896 272 736 272
WIRE -272 288 -272 272
FLAG -272 288 0
FLAG 176 64 A
FLAG 528 64 B
FLAG 112 -112 vgau
FLAG 112 160 vgad
FLAG 592 -112 vgbu
FLAG 592 160 vgbd
FLAG -272 -192 vdc
SYMBOL MyMOS 192 160 R0
SYMATTR InstName X1
SYMBOL res 96 144 R90
WINDOW 0 0 56 VBottom 2
WINDOW 3 32 56 VTop 2
SYMATTR InstName RgAd
SYMATTR Value {Rgval/2}
SYMBOL MyMOS 192 -112 R0
SYMATTR InstName X2
SYMBOL MyMOS 512 160 M0
SYMATTR InstName X3
SYMBOL res 720 144 R90
WINDOW 0 0 56 VBottom 2
WINDOW 3 32 56 VTop 2
SYMATTR InstName RgBd
SYMATTR Value {Rgval/2}
SYMBOL voltage -272 0 R0
WINDOW 123 0 0 Left 0
WINDOW 39 0 0 Left 0
SYMATTR InstName VDC
SYMATTR Value 96
SYMBOL MyMOS 512 -112 M0
SYMATTR InstName X4
SYMBOL res 720 -128 R90
WINDOW 0 0 56 VBottom 2
WINDOW 3 32 56 VTop 2
SYMATTR InstName RgBu
SYMATTR Value {Rgval/2}
SYMBOL res 480 48 R90
WINDOW 0 0 56 VBottom 2
WINDOW 3 32 56 VTop 2
SYMATTR InstName RL
SYMATTR Value 0.1
SYMBOL ind 240 80 R270
WINDOW 0 32 56 VTop 2
WINDOW 3 5 56 VBottom 2
SYMATTR InstName LL
SYMATTR Value 36µ
SYMBOL cap 320 -16 R270
WINDOW 0 32 32 VTop 2
WINDOW 3 0 32 VBottom 2
SYMATTR InstName Csnub
SYMATTR Value {Csnubber}
SYMATTR SpiceLine Rser=1 Rpar=0
SYMBOL voltage -160 -112 R0
WINDOW 0 -96 42 Left 2
WINDOW 3 -96 69 Left 2
WINDOW 123 0 0 Left 0
WINDOW 39 0 0 Left 0
SYMATTR InstName VgAu
SYMATTR Value PULSE(0 15 0 1n 1n 7u 42.666u)
SYMBOL res -32 -128 R90
WINDOW 0 0 56 VBottom 2
WINDOW 3 32 56 VTop 2
SYMATTR InstName R1
SYMATTR Value {Rgval/2}
SYMBOL res 80 -128 R90
WINDOW 0 0 56 VBottom 2
WINDOW 3 32 56 VTop 2
SYMATTR InstName R2
SYMATTR Value {Rgval/2}
SYMBOL cap -48 -16 R0
SYMATTR InstName C1
SYMATTR Value 10n
SYMBOL voltage -160 160 R0
WINDOW 0 -95 39 Left 2
WINDOW 3 -95 68 Left 2
WINDOW 123 0 0 Left 0
WINDOW 39 0 0 Left 0
SYMATTR InstName VgAd
SYMATTR Value 0
SYMBOL res -32 144 R90
WINDOW 0 0 56 VBottom 2
WINDOW 3 32 56 VTop 2
SYMATTR InstName R3
SYMATTR Value {Rgval/2}
SYMBOL cap -64 192 R0
SYMATTR InstName C2
SYMATTR Value 10n
SYMBOL res 864 -128 R90
WINDOW 0 0 56 VBottom 2
WINDOW 3 32 56 VTop 2
SYMATTR InstName R4
SYMATTR Value {Rgval/2}
SYMBOL voltage 896 -112 R0
WINDOW 0 55 32 Left 2
WINDOW 3 53 62 Left 2
WINDOW 123 0 0 Left 0
WINDOW 39 0 0 Left 0
SYMATTR InstName VgBu
SYMATTR Value 0
SYMBOL cap 720 -96 R0
SYMATTR InstName C3
SYMATTR Value 10n
SYMBOL voltage 896 160 R0
WINDOW 0 55 32 Left 2
WINDOW 3 55 60 Left 2
WINDOW 123 0 0 Left 0
WINDOW 39 0 0 Left 0
SYMATTR InstName VgBd
SYMATTR Value 15
SYMBOL res 864 144 R90
WINDOW 0 0 56 VBottom 2
WINDOW 3 32 56 VTop 2
SYMATTR InstName R5
SYMATTR Value {Rgval/2}
SYMBOL cap 720 192 R0
SYMATTR InstName C4
SYMATTR Value 10n
TEXT -280 360 Left 2 !.tran 0 480u 466u
TEXT 8 360 Left 2 !*.step param Csnubber list 100n 220n
TEXT 488 360 Left 2 !.param Rgval=20 Csnubber=10n
