Version 4
SHEET 1 1448 680
WIRE 192 -192 -272 -192
WIRE 304 -192 192 -192
WIRE 384 -192 304 -192
WIRE 512 -192 384 -192
WIRE 192 -160 192 -192
WIRE 512 -160 512 -192
WIRE 304 -128 304 -192
WIRE 384 -128 384 -192
WIRE -64 -112 -160 -112
WIRE 112 -112 16 -112
WIRE 144 -112 112 -112
WIRE 592 -112 560 -112
WIRE 688 -112 592 -112
WIRE 896 -112 768 -112
WIRE -160 -96 -160 -112
WIRE 896 -96 896 -112
WIRE 192 0 192 -64
WIRE 208 0 192 0
WIRE 304 0 304 -64
WIRE 304 0 288 0
WIRE 384 0 384 -64
WIRE 400 0 384 0
WIRE 512 0 512 -64
WIRE 512 0 480 0
WIRE -272 16 -272 -192
WIRE -160 64 -160 -16
WIRE 176 64 -160 64
WIRE 192 64 192 0
WIRE 192 64 176 64
WIRE 256 64 192 64
WIRE 352 64 336 64
WIRE 512 64 512 0
WIRE 512 64 432 64
WIRE 528 64 512 64
WIRE 896 64 896 -16
WIRE 896 64 528 64
WIRE 192 112 192 64
WIRE 512 112 512 64
WIRE 304 128 304 0
WIRE 384 128 384 0
WIRE -64 160 -160 160
WIRE 112 160 16 160
WIRE 144 160 112 160
WIRE 592 160 560 160
WIRE 672 160 592 160
WIRE 896 160 752 160
WIRE -160 176 -160 160
WIRE 896 176 896 160
WIRE -272 272 -272 96
WIRE -160 272 -160 256
WIRE -160 272 -272 272
WIRE 192 272 192 208
WIRE 192 272 -160 272
WIRE 304 272 304 192
WIRE 304 272 192 272
WIRE 384 272 384 192
WIRE 384 272 304 272
WIRE 512 272 512 208
WIRE 512 272 384 272
WIRE 896 272 896 256
WIRE 896 272 512 272
WIRE -272 288 -272 272
FLAG -272 288 0
FLAG 176 64 A
FLAG 528 64 B
FLAG 112 -112 vgau
FLAG 112 160 vgad
FLAG 592 -112 vgbu
FLAG 592 160 vgbd
FLAG -272 -192 vdc
SYMBOL MyMOS 192 160 R0
SYMATTR InstName X1
SYMBOL MyMOS 192 -112 R0
SYMATTR InstName X2
SYMBOL MyMOS 512 160 M0
SYMATTR InstName X3
SYMBOL voltage -272 0 R0
WINDOW 123 0 0 Left 0
WINDOW 39 0 0 Left 0
SYMATTR InstName VDC
SYMATTR Value 96
SYMBOL MyMOS 512 -112 M0
SYMATTR InstName X4
SYMBOL ind 240 80 R270
WINDOW 0 32 56 VTop 2
WINDOW 3 5 56 VBottom 2
SYMATTR InstName LL
SYMATTR Value 36µ
SYMBOL voltage -160 -112 R0
WINDOW 0 -96 42 Left 2
WINDOW 3 -96 69 Left 2
WINDOW 123 0 0 Left 0
WINDOW 39 0 0 Left 0
SYMATTR InstName VgAu
SYMATTR Value PULSE(0 15 0 1n 1n 7u 42.666u)
SYMBOL voltage -160 160 R0
WINDOW 0 -95 39 Left 2
WINDOW 3 -95 68 Left 2
WINDOW 123 0 0 Left 0
WINDOW 39 0 0 Left 0
SYMATTR InstName VgAd
SYMATTR Value 0
SYMBOL voltage 896 -112 R0
WINDOW 0 55 32 Left 2
WINDOW 3 53 62 Left 2
WINDOW 123 0 0 Left 0
WINDOW 39 0 0 Left 0
SYMATTR InstName VgBu
SYMATTR Value 0
SYMBOL voltage 896 160 R0
WINDOW 0 55 32 Left 2
WINDOW 3 55 60 Left 2
WINDOW 123 0 0 Left 0
WINDOW 39 0 0 Left 0
SYMATTR InstName VgBd
SYMATTR Value 15
SYMBOL res 32 -128 R90
WINDOW 0 0 56 VBottom 2
WINDOW 3 32 56 VTop 2
SYMATTR InstName R1
SYMATTR Value {Rgval}
SYMBOL res 784 -128 R90
WINDOW 0 0 56 VBottom 2
WINDOW 3 32 56 VTop 2
SYMATTR InstName R2
SYMATTR Value {Rgval}
SYMBOL res 32 144 R90
WINDOW 0 0 56 VBottom 2
WINDOW 3 32 56 VTop 2
SYMATTR InstName R3
SYMATTR Value {Rgval}
SYMBOL res 768 144 R90
WINDOW 0 0 56 VBottom 2
WINDOW 3 32 56 VTop 2
SYMATTR InstName R4
SYMATTR Value {Rgval}
SYMBOL res 448 48 R90
WINDOW 0 0 56 VBottom 2
WINDOW 3 32 56 VTop 2
SYMATTR InstName R7
SYMATTR Value 0.2
SYMBOL res 304 -16 R90
WINDOW 0 0 56 VBottom 1
WINDOW 3 32 56 VTop 0
SYMATTR InstName R5
SYMATTR Value {Rsnub}
SYMBOL cap 288 -128 R0
WINDOW 3 24 56 Left 0
SYMATTR InstName C1
SYMATTR Value {Csnubber/2}
SYMBOL cap 368 -128 R0
WINDOW 3 24 56 Left 0
SYMATTR InstName C2
SYMATTR Value {Csnubber/2}
SYMBOL cap 288 128 R0
WINDOW 3 24 56 Left 0
SYMATTR InstName C3
SYMATTR Value {Csnubber/2}
SYMBOL cap 368 128 R0
WINDOW 3 24 56 Left 0
SYMATTR InstName C4
SYMATTR Value {Csnubber/2}
SYMBOL res 496 -16 R90
WINDOW 0 0 56 VBottom 1
WINDOW 3 32 56 VTop 0
SYMATTR InstName R6
SYMATTR Value {Rsnub}
TEXT -280 360 Left 2 !.tran 0 480u 466u
TEXT 488 360 Left 2 !.param Rgval=15 Csnubber=4.7n Rsnub=0.5 Cgsnubber=10n Rgsnubber=500m
